reduced_networks/ieee8500/31pct/dss/Shunts.dss
! Kron-equivalent grounded shunts
new Reactor.sh_2 phases=3 bus1=_hvmv_sub_lsb.1.2.3 bus2=_hvmv_sub_lsb.0.0.0 rmatrix=[-924.3571513226796 | -24993.25990980879 -17593.5564023222 | -10405.47959325864 -16352.26636783743 36132.50931152302] xmatrix=[-37447701.04315116 | -14831537.04604576 -37787168.27578534 | -13602068.03720109 -16063887.24914464 -37493615.90267107]
new Reactor.sh_3 phases=3 bus1=m1009763.1.2.3 bus2=m1009763.0.0.0 rmatrix=[-0.1602081091069489 | -0.1137981165171426 -0.1488038051902892 | -0.146677024456674 -0.04434096507673324 -0.07125585008807922] xmatrix=[-3272192.735420225 | -944706.8225152725 -2741624.830208302 | -983791.1643194751 -1021766.194842415 -3259524.289767511]
new Reactor.sh_4 phases=1 bus1=l2673322.2 bus2=l2673322.0 rmatrix=[0.3638925761869781] xmatrix=[-10120605.43610242]
new Reactor.sh_5 phases=1 bus1=m1069148.3 bus2=m1069148.0 rmatrix=[0.2457398801521277] xmatrix=[-4158413.974805128]
new Reactor.sh_6 phases=1 bus1=l2673309.3 bus2=l2673309.0 rmatrix=[-0.05437591161115214] xmatrix=[-7824438.235866831]
new Reactor.sh_7 phases=1 bus1=m1069588.2 bus2=m1069588.0 rmatrix=[0] xmatrix=[-5786615.876782436]
new Reactor.sh_8 phases=1 bus1=l2804270.2 bus2=l2804270.0 rmatrix=[0] xmatrix=[-8360952.972889153]
new Reactor.sh_9 phases=1 bus1=m3036164.2 bus2=m3036164.0 rmatrix=[0] xmatrix=[-3822539.532519788]
new Reactor.sh_10 phases=1 bus1=l2935553.2 bus2=l2935553.0 rmatrix=[0.03912730843243768] xmatrix=[-4693262.884734984]
new Reactor.sh_11 phases=1 bus1=l2748840.2 bus2=l2748840.0 rmatrix=[-0.006608890642911737] xmatrix=[-3857706.312902453]
new Reactor.sh_12 phases=3 bus1=l3085398.1.2.3 bus2=l3085398.0.0.0 rmatrix=[0.0514182964407805 | 0.01379145121340913 0.003380249555786349 | 0.002615143742347361 -0.0003805685683337667 -0.003538120307234469] xmatrix=[-5866834.739559967 | -2035640.740356348 -5907613.342941618 | -1866022.460601954 -2201686.925872126 -5866836.761715913]
new Reactor.sh_13 phases=3 bus1=m1026891.1.2.3 bus2=m1026891.0.0.0 rmatrix=[0.05355925549682432 | 0.05113650886917892 0.08350069225613724 | 0.0119368523483246 0.01529364705228122 -0.001132757626918793] xmatrix=[-4773305.982064243 | -1626456.951908235 -4792722.719931479 | -1417247.666153592 -1672185.4813667 -4455873.909437664]
new Reactor.sh_14 phases=3 bus1=l3216367.1.2.3 bus2=l3216367.0.0.0 rmatrix=[0.08491463109992661 | -0.04427164421223313 -0.221985124092918 | 0.004909997821585337 -0.08019847487870842 -0.02431242567998449] xmatrix=[-5747181.198596373 | -2136439.567887026 -5789975.463030434 | -1958426.44720992 -2310711.320307501 -5747181.622894192]
new Reactor.sh_15 phases=3 bus1=m1069468.1.2.3 bus2=m1069468.0.0.0 rmatrix=[-0.3690912295400183 | -0.08015508699020811 -0.2823494696534268 | 0.02588329205655325 -0.07840325158426284 0.1236217140253769] xmatrix=[-6025000.980211737 | -2239715.454594587 -6728852.910996153 | -2053096.979972179 -2631182.756895871 -6695075.451268711]
new Reactor.sh_16 phases=3 bus1=m1047592.1.2.3 bus2=m1047592.0.0.0 rmatrix=[0.07316511157756934 | -0.02342207851522221 0.0228423265101676 | 0.00192032566766176 0.08936587140512975 -0.03522406334838557] xmatrix=[-2924465.984367324 | -1038719.094901456 -2923197.522473881 | -841163.3893897271 -992473.1947091726 -2468471.01793105]
new Reactor.sh_17 phases=3 bus1=m1047339.1.2.3 bus2=m1047339.0.0.0 rmatrix=[-1.19202300939128 | -0.4233898535928108 -0.1844711650944022 | -0.3916297834973712 -0.1399239883631055 -0.1260378889928913] xmatrix=[-2963999.169969338 | -1028431.468034695 -5112302.491837611 | -942738.1617945702 -1748108.869647022 -5121165.317223548]
new Reactor.sh_18 phases=3 bus1=m1026915.1.2.3 bus2=m1026915.0.0.0 rmatrix=[-0.8812751599347489 | -2.562110407629398 -7.372988967793518 | -0.9725933427986766 -2.818672465850381 -1.191442385043869] xmatrix=[-7146285.846597302 | -2242759.959783341 -6335090.870171658 | -2199996.473858361 -2425697.521165483 -6935554.545660804]
new Reactor.sh_19 phases=3 bus1=m1026920.1.2.3 bus2=m1026920.0.0.0 rmatrix=[0.04136430620398348 | 0.09054139942861504 0.2185099520273503 | 0.0763659564383903 0.1427121033080089 0.1703808038254521] xmatrix=[-6057233.006159282 | -1815756.325103834 -5128940.017676685 | -1838469.203810279 -1963864.019379963 -5871852.283439212]
new Reactor.sh_20 phases=1 bus1=l3254207.1 bus2=l3254207.0 rmatrix=[-0.6345906929868794] xmatrix=[-7716246.943022804]
new Reactor.sh_21 phases=3 bus1=m1069464.1.2.3 bus2=m1069464.0.0.0 rmatrix=[-0.03994604060192647 | -0.06131963407942799 -0.08843506461790909 | -0.07739351808378087 -0.0990836781444749 -0.1932126486421152] xmatrix=[-4886287.751970297 | -1410886.37054514 -3823650.23837621 | -1536592.559791986 -1525973.974345661 -4856841.675579526]
new Reactor.sh_22 phases=1 bus1=l2729406.3 bus2=l2729406.0 rmatrix=[0] xmatrix=[-2523352.695076771]
new Reactor.sh_23 phases=1 bus1=l2897768.3 bus2=l2897768.0 rmatrix=[0] xmatrix=[-4307825.615801787]
new Reactor.sh_24 phases=1 bus1=l3649301.1 bus2=l3649301.0 rmatrix=[0.1535329306844186] xmatrix=[-6573863.258977206]
new Reactor.sh_25 phases=1 bus1=l3649302.1 bus2=l3649302.0 rmatrix=[0] xmatrix=[-6490997.735689271]
new Reactor.sh_26 phases=1 bus1=m1089113.2 bus2=m1089113.0 rmatrix=[-0.005213558687843219] xmatrix=[-1211398.487153739]
new Reactor.sh_27 phases=3 bus1=m1047312.1.2.3 bus2=m1047312.0.0.0 rmatrix=[-3.72059844333915 | -1.819094970728792 -0.8801415356366276 | -0.3670731445651472 -0.3447205866005252 0.06087271721724452] xmatrix=[-5409677.376141686 | -1877018.245862804 -5710541.608082986 | -1720617.680376509 -2108793.098361714 -5676588.127606279]
new Reactor.sh_28 phases=3 bus1=l2822871.1.2.3 bus2=l2822871.0.0.0 rmatrix=[6.688915905590914e-05 | 0.04386083902324298 0.003744833869240127 | 0.003955559547461948 -0.04940122399398816 -0.09694745676054931] xmatrix=[-2660220.992548815 | -988902.3694034956 -2680029.32817688 | -906504.7522319295 -1069568.205630196 -2660221.214819088]
new Reactor.sh_29 phases=1 bus1=l2973163.2 bus2=l2973163.0 rmatrix=[-594.9425916810037] xmatrix=[-2413555.955652592]
new Reactor.sh_30 phases=1 bus1=l3728038.1 bus2=l3728038.0 rmatrix=[0] xmatrix=[-9852234.038159922]
new Reactor.sh_31 phases=1 bus1=l3728039.1 bus2=l3728039.0 rmatrix=[0] xmatrix=[-5856338.480406092]
new Reactor.sh_32 phases=1 bus1=m1069567.2 bus2=m1069567.0 rmatrix=[0.01248951610101996] xmatrix=[-2651598.08382498]
new Reactor.sh_33 phases=1 bus1=m1069582.2 bus2=m1069582.0 rmatrix=[0.06382959704625916] xmatrix=[-2119341.543666961]
new Reactor.sh_34 phases=1 bus1=l3216351.1 bus2=l3216351.0 rmatrix=[-7.343553207996727] xmatrix=[-16074150.32057773]
new Reactor.sh_35 phases=1 bus1=l2952007.3 bus2=l2952007.0 rmatrix=[0] xmatrix=[-3028587.128783455]
new Reactor.sh_36 phases=1 bus1=l2861158.3 bus2=l2861158.0 rmatrix=[0] xmatrix=[-6630342.020780804]
new Reactor.sh_37 phases=3 bus1=m1026726.1.2.3 bus2=m1026726.0.0.0 rmatrix=[-0.4651695049650376 | 0.3242371578243234 -0.1240419352757279 | -0.04441745162538644 0.3626916974331962 0.9205506990134176] xmatrix=[-8865715.612830579 | -985015.0488213532 -2821796.550014259 | -2212790.534799423 -1065375.266261508 -8721625.235454107]
new Reactor.sh_38 phases=3 bus1=l2730106.1.2.3 bus2=l2730106.0.0.0 rmatrix=[0.1617367755308768 | 0.1674774164951247 0.170085169469279 | -0.287018297056871 -0.05819918979259434 -0.3184712700900316] xmatrix=[-4174116.798266686 | -1654955.162269855 -4207262.52661145 | -1517063.024213367 -1789950.826444422 -4174119.870210657]
new Reactor.sh_39 phases=3 bus1=m1026658.1.2.3 bus2=m1026658.0.0.0 rmatrix=[-0.06051274336414101 | -0.05485511107293048 -0.2070886064602809 | -0.02936435368007731 -0.0736410868757362 -0.02830023339808203] xmatrix=[-3899047.113774903 | -1352869.056745215 -7513987.351614916 | -1240142.208919954 -2535321.438807475 -7536570.643867414]
new Reactor.sh_40 phases=1 bus1=l3172805.1 bus2=l3172805.0 rmatrix=[-0.05205483369717538] xmatrix=[-7655620.936610896]
new Reactor.sh_41 phases=1 bus1=l3048962.1 bus2=l3048962.0 rmatrix=[3.015312510497522] xmatrix=[-23787041.5615702]
new Reactor.sh_42 phases=3 bus1=l2991914.1.2.3 bus2=l2991914.0.0.0 rmatrix=[0.5205721490488786 | 0.6273436297575884 0.6978595830399517 | 0.611070905845378 0.6267371404566862 0.2559222364300707] xmatrix=[-4780714.463876844 | -1658785.3520001 -4813944.226906057 | -1520568.222673655 -1794091.791627607 -4780716.31349973]
new Reactor.sh_43 phases=1 bus1=l2973154.1 bus2=l2973154.0 rmatrix=[-0.2907010923499725] xmatrix=[-5721016.809387498]
new Reactor.sh_44 phases=1 bus1=l3010565.3 bus2=l3010565.0 rmatrix=[-0.01951845433322938] xmatrix=[-2706524.57778279]
new Reactor.sh_45 phases=1 bus1=l2897775.3 bus2=l2897775.0 rmatrix=[0.02987201760492256] xmatrix=[-5799388.114501657]
new Reactor.sh_46 phases=1 bus1=m1125955.3 bus2=m1125955.0 rmatrix=[0.4434511007452624] xmatrix=[-4222734.191783542]
new Reactor.sh_47 phases=1 bus1=m1069640.2 bus2=m1069640.0 rmatrix=[0.01055766164381553] xmatrix=[-2437916.165234735]
new Reactor.sh_48 phases=1 bus1=l2804269.2 bus2=l2804269.0 rmatrix=[-0.04694274287275955] xmatrix=[-5140662.898204274]
new Reactor.sh_49 phases=3 bus1=m1026702.1.2.3 bus2=m1026702.0.0.0 rmatrix=[0.0009199101588507542 | 0.06263046629626282 0.06751783144565854 | 0.07737394798158989 -0.008600907105915323 0.1512102044549544] xmatrix=[-1676404.832688304 | -583332.0596641978 -1688083.906856707 | -534723.3670849082 -630917.2956197553 -1676401.763588406]
new Reactor.sh_50 phases=1 bus1=l2783231.2 bus2=l2783231.0 rmatrix=[-0.03899739427292673] xmatrix=[-3313124.001621527]
new Reactor.sh_51 phases=1 bus1=l2748143.1 bus2=l2748143.0 rmatrix=[-0.2488535737322061] xmatrix=[-8369352.053486542]
new Reactor.sh_52 phases=1 bus1=l3251854.1 bus2=l3251854.0 rmatrix=[0.2635018808985064] xmatrix=[-12179424.08900571]
new Reactor.sh_53 phases=1 bus1=m1069610.2 bus2=m1069610.0 rmatrix=[30757.6542608421] xmatrix=[-3662019.170400199]
new Reactor.sh_54 phases=3 bus1=m1069424.1.2.3 bus2=m1069424.0.0.0 rmatrix=[-0.2478431221741281 | -0.09099837811467149 0.2165528787083639 | -0.1005402187501649 0.1705590983669407 -0.03351485483599959] xmatrix=[-2851255.836220202 | -1059917.053275565 -4478199.510048307 | -971602.3315503923 -1655074.591222177 -4483980.72856724]
new Reactor.sh_55 phases=3 bus1=l2935549.1.2.3 bus2=l2935549.0.0.0 rmatrix=[0.0003099459124532698 | 0.002818538513376214 -0.008224602935441123 | -0.003799085522531839 -0.01171892973780604 0.03117311343656282] xmatrix=[-4205734.769927898 | -1563426.890550085 -4237051.085229916 | -1433158.567616012 -1690957.372679251 -4205735.087729691]
new Reactor.sh_56 phases=1 bus1=l3235242.3 bus2=l3235242.0 rmatrix=[0.04622169323510375] xmatrix=[-2550514.656913749]
new Reactor.sh_57 phases=3 bus1=m1026795.1.2.3 bus2=m1026795.0.0.0 rmatrix=[-63110.63648730188 | -16169.58100333531 -63628.01969878594 | -10428.13725670352 -16517.48217503206 -50364.67778763438] xmatrix=[-3278326.513561809 | -1080811.356181737 -3285194.392591308 | -916636.2055795973 -1085548.481197653 -2959639.200088701]
new Reactor.sh_58 phases=3 bus1=l3030199.1.2.3 bus2=l3030199.0.0.0 rmatrix=[-0.4526491884327321 | 0.04622232312051655 -0.03423578350798873 | -0.1421638027282854 0.2139280668226204 -0.1708744587510278] xmatrix=[-4003724.994893073 | -1587398.451702943 -4035518.621740002 | -1455135.413826587 -1716883.522675746 -4003728.011895115]
new Reactor.sh_59 phases=3 bus1=m1069189.1.2.3 bus2=m1069189.0.0.0 rmatrix=[-717.1795383882605 | -721.067248681606 -679.9914834050011 | -567.8033724147529 -535.4602770201661 -444.3583131122095] xmatrix=[-4007582.001078398 | -1286127.738103142 -3987106.841353006 | -920312.954401219 -1085837.599581165 -2893288.956111882]
new Reactor.sh_60 phases=1 bus1=l2860487.3 bus2=l2860487.0 rmatrix=[0] xmatrix=[-9645638.925133087]
new Reactor.sh_61 phases=1 bus1=l3102286.2 bus2=l3102286.0 rmatrix=[0.02794122533286141] xmatrix=[-410158.5904669254]
new Reactor.sh_62 phases=3 bus1=f739845.1.2.3 bus2=f739845.0.0.0 rmatrix=[101.9227855362929 | 67.76792225448499 106.3410072862833 | 63.65058242547661 71.75350341621103 103.6013815742841] xmatrix=[-27118010.04645711 | -9358331.457108766 -27300518.57509616 | -8576564.936203413 -10123670.77720638 -27115331.70386642]
new Reactor.sh_63 phases=3 bus1=293471.1.2.3 bus2=293471.0.0.0 rmatrix=[1.348605668068767 | 0.763464339530382 1.314575096119641 | 0.1722910017905238 0.1494752027653186 -1.002964346371095] xmatrix=[-27292410.50453231 | -9469763.86709848 -27482110.19204896 | -8680702.882614342 -10242207.67551953 -27292419.36061428]
new Reactor.sh_64 phases=1 bus1=l3198355.2 bus2=l3198355.0 rmatrix=[0.175307120074953] xmatrix=[-2464381.777325677]
new Reactor.sh_65 phases=1 bus1=l2860504.1 bus2=l2860504.0 rmatrix=[-0.09644396234375109] xmatrix=[-3684193.398823512]
new Reactor.sh_66 phases=1 bus1=l2860493.1 bus2=l2860493.0 rmatrix=[-0.01352394838268846] xmatrix=[-2759222.024217948]
new Reactor.sh_67 phases=3 bus1=m1026783.1.2.3 bus2=m1026783.0.0.0 rmatrix=[-0.4751189311414126 | -0.2804380224267385 -0.500537317120596 | -0.1465779549327781 -0.2789452416698079 0.08099391511652421] xmatrix=[-1646092.992815425 | -555130.0263403001 -2265315.326188114 | -469199.9043488234 -719862.171211137 -2039287.89537971]
new Reactor.sh_68 phases=3 bus1=m1026700.1.2.3 bus2=m1026700.0.0.0 rmatrix=[-0.1432043910953784 | -0.08399858228273671 -0.4559625871826349 | -0.3620603482586712 -0.5900160724994333 -0.2270928568602744] xmatrix=[-2894168.391414183 | -819772.0577910405 -2422917.96924761 | -802282.7903471416 -834109.3822764166 -2657119.148972783]
new Reactor.sh_69 phases=1 bus1=m1089173.3 bus2=m1089173.0 rmatrix=[609.7066999586104] xmatrix=[-947646.8805885912]
new Reactor.sh_70 phases=1 bus1=l2935551.3 bus2=l2935551.0 rmatrix=[0] xmatrix=[-9031913.460180353]
new Reactor.sh_71 phases=1 bus1=m1026344.1 bus2=m1026344.0 rmatrix=[0.03959379562636374] xmatrix=[-1669181.137770981]
new Reactor.sh_72 phases=3 bus1=l2879070.1.2.3 bus2=l2879070.0.0.0 rmatrix=[-0.02780005974221918 | -0.06337947652198025 -0.2043127482348355 | -0.04750037978734793 -0.08674976000407368 -0.04530685720795382] xmatrix=[-5476641.328215986 | -2035869.843883838 -5517421.148242356 | -1866236.344298478 -2201937.932950866 -5476641.424842818]
new Reactor.sh_73 phases=3 bus1=l3216345.1.2.3 bus2=l3216345.0.0.0 rmatrix=[0.1036338935082823 | 0.07313058498060092 0.04349535563393158 | 0.03076540007653746 0.02068578719049458 -0.04288843484103599] xmatrix=[-4702793.139344609 | -1748201.87244134 -4737810.653975846 | -1602537.621642455 -1890804.620486443 -4702793.340235679]
new Reactor.sh_74 phases=3 bus1=m1069428.1.2.3 bus2=m1069428.0.0.0 rmatrix=[0.3280014429398683 | 1.240692511803327 0.638423674361666 | 0.4555131578888474 0.2121040054734624 0.1572131454416458] xmatrix=[-5928505.609818636 | -1186878.048168845 -3216563.437617806 | -1698034.344189633 -1283692.725896659 -5854660.865264706]
new Reactor.sh_75 phases=1 bus1=l2991919.1 bus2=l2991919.0 rmatrix=[0] xmatrix=[-3912602.764013167]
new Reactor.sh_76 phases=1 bus1=m1026361.1 bus2=m1026361.0 rmatrix=[-0.1647871850341208] xmatrix=[-4815779.736364987]
new Reactor.sh_77 phases=3 bus1=q14412.1.2.3 bus2=q14412.0.0.0 rmatrix=[8.046951814215197 | 23.46250009391662 68.40961936321264 | 8.704889340969608 25.38084876229948 9.416621373920176] xmatrix=[-24365741.09970504 | -8413188.259976041 -24530335.82178243 | -7710558.977528743 -9101070.132209474 -24363646.36932787]
new Reactor.sh_78 phases=3 bus1=m1047325.1.2.3 bus2=m1047325.0.0.0 rmatrix=[674.5206710095473 | 749.2573558129798 782.9663886442155 | 749.6588973613067 784.0223565531247 824.2666193840142] xmatrix=[-5438271.519273516 | -1886875.700928805 -6088427.96478457 | -1729627.280199151 -2223756.748569292 -6059079.117549011]
new Reactor.sh_79 phases=1 bus1=l3048227.1 bus2=l3048227.0 rmatrix=[-6.393270292361789] xmatrix=[-24491805.47589193]
new Reactor.sh_80 phases=1 bus1=m1069469.1 bus2=m1069469.0 rmatrix=[-0.5192300960156483] xmatrix=[-3489869.616063102]
new Reactor.sh_81 phases=1 bus1=l2785522.2 bus2=l2785522.0 rmatrix=[0.06801360310765979] xmatrix=[-1273054.149368514]
new Reactor.sh_82 phases=1 bus1=l3216338.2 bus2=l3216338.0 rmatrix=[0.0532165880171639] xmatrix=[-5473415.352750123]
new Reactor.sh_83 phases=1 bus1=l2973146.2 bus2=l2973146.0 rmatrix=[0] xmatrix=[-13941423.12090953]
new Reactor.sh_84 phases=1 bus1=m3037452.1 bus2=m3037452.0 rmatrix=[0.5408699011511782] xmatrix=[-4362358.059816575]
new Reactor.sh_85 phases=1 bus1=l2973164.1 bus2=l2973164.0 rmatrix=[0] xmatrix=[-11742833.7024802]
new Reactor.sh_86 phases=1 bus1=l3120376.1 bus2=l3120376.0 rmatrix=[-0.06499683057384865] xmatrix=[-4277263.295569088]
new Reactor.sh_87 phases=1 bus1=m1026925.1 bus2=m1026925.0 rmatrix=[0.1079900899510263] xmatrix=[-3898493.817854014]
new Reactor.sh_88 phases=1 bus1=l3141393.3 bus2=l3141393.0 rmatrix=[0.08034211647215345] xmatrix=[-3262211.10880016]
new Reactor.sh_89 phases=1 bus1=m1026940.2 bus2=m1026940.0 rmatrix=[0.02615517904710424] xmatrix=[-1356652.902748813]
new Reactor.sh_90 phases=1 bus1=m1047471.2 bus2=m1047471.0 rmatrix=[0] xmatrix=[-2707750.201821378]
new Reactor.sh_91 phases=1 bus1=l3216349.2 bus2=l3216349.0 rmatrix=[6.999526682253028] xmatrix=[-44386840.50676601]
new Reactor.sh_92 phases=1 bus1=m1047401.1 bus2=m1047401.0 rmatrix=[-0.2068920321362498] xmatrix=[-3115416.770364349]
new Reactor.sh_93 phases=1 bus1=l2748132.1 bus2=l2748132.0 rmatrix=[0.2051970015075118] xmatrix=[-997910.0680966534]
new Reactor.sh_94 phases=1 bus1=l3122820.1 bus2=l3122820.0 rmatrix=[0] xmatrix=[-6119206.87095314]
new Reactor.sh_95 phases=1 bus1=l3141398.1 bus2=l3141398.0 rmatrix=[-0.3357063272507741] xmatrix=[-13747212.83560999]
new Reactor.sh_96 phases=1 bus1=l3048968.3 bus2=l3048968.0 rmatrix=[0.1896770596114614] xmatrix=[-2865963.283391105]
new Reactor.sh_97 phases=1 bus1=m1069224.3 bus2=m1069224.0 rmatrix=[-6231.311551168156] xmatrix=[-2350777.27245847]
new Reactor.sh_98 phases=1 bus1=l2766746.3 bus2=l2766746.0 rmatrix=[52677.4278584093] xmatrix=[-1282666.028803724]
new Reactor.sh_99 phases=1 bus1=m1027073.3 bus2=m1027073.0 rmatrix=[0.02120683882096467] xmatrix=[-2443193.493776759]
new Reactor.sh_100 phases=1 bus1=m1069181.1 bus2=m1069181.0 rmatrix=[0] xmatrix=[-3021163.448510494]
new Reactor.sh_101 phases=1 bus1=l2973151.1 bus2=l2973151.0 rmatrix=[-0.1079758870171788] xmatrix=[-5512940.265128544]
new Reactor.sh_102 phases=1 bus1=l3179682.3 bus2=l3179682.0 rmatrix=[-1.198477712406731] xmatrix=[-10604110.61702225]
new Reactor.sh_103 phases=1 bus1=l2786274.3 bus2=l2786274.0 rmatrix=[0] xmatrix=[-30258809.10204145]
new Reactor.sh_104 phases=1 bus1=l3066816.1 bus2=l3066816.0 rmatrix=[50042.27828662132] xmatrix=[-995389.1828461294]
new Reactor.sh_105 phases=3 bus1=m1108529.1.2.3 bus2=m1108529.0.0.0 rmatrix=[-0.0988534614272481 | -0.2180091025593723 -0.5472575138548103 | -0.1477320636557465 -0.2443357038326164 -0.3206387334694467] xmatrix=[-8155491.656375083 | -2519440.186799737 -7870089.453638189 | -787460.6890411609 -929108.0828092685 -2166656.165573766]
new Reactor.sh_106 phases=3 bus1=m1108532.1.2.3 bus2=m1108532.0.0.0 rmatrix=[0.0299313190940826 | 0.02282337480401018 0.002680078931003013 | 0.03846694964532003 -0.001488020487101789 0.02116603038596378] xmatrix=[-1696227.21874832 | -613222.6253633987 -1558948.41868257 | -596640.3737799641 -663243.540890601 -1691536.127807211]
new Reactor.sh_107 phases=1 bus1=l2766723.1 bus2=l2766723.0 rmatrix=[0] xmatrix=[-7134944.497444189]
new Reactor.sh_108 phases=1 bus1=l3122822.1 bus2=l3122822.0 rmatrix=[0.1913885700285975] xmatrix=[-14679385.98834726]
new Reactor.sh_109 phases=1 bus1=l2673312.1 bus2=l2673312.0 rmatrix=[0] xmatrix=[-3209207.675184421]
new Reactor.sh_110 phases=1 bus1=l3235247.1 bus2=l3235247.0 rmatrix=[0.0107166639997597] xmatrix=[-4912411.033601686]
new Reactor.sh_111 phases=1 bus1=m1166391.3 bus2=m1166391.0 rmatrix=[-0.01022774273695033] xmatrix=[-876181.6590351468]
new Reactor.sh_112 phases=1 bus1=l3254873.3 bus2=l3254873.0 rmatrix=[0.1274337836944035] xmatrix=[-5989108.549830699]
new Reactor.sh_113 phases=1 bus1=l2861157.3 bus2=l2861157.0 rmatrix=[46411.34612412328] xmatrix=[-1739533.344368679]
new Reactor.sh_114 phases=3 bus1=m1047346.1.2.3 bus2=m1047346.0.0.0 rmatrix=[0.1542626278387751 | -0.1365956112286925 -0.2817820380628221 | -0.02148359424335772 -0.008829379206220695 0.008155966127445579] xmatrix=[-8982417.114327118 | -2868427.968263436 -8930054.767532106 | -2014722.157975012 -2377135.072340053 -6334353.614934962]
new Reactor.sh_115 phases=3 bus1=m1047345.1.2.3 bus2=m1047345.0.0.0 rmatrix=[0.0720351352819842 | 0.03547929198539384 0.2059361520623158 | 0.05194440280672126 0.08725239972114657 0.2209624296402684] xmatrix=[-4518995.493784665 | -1567975.178899317 -8087076.697236598 | -1437324.800032885 -2752683.910871777 -8104642.726242092]
new Reactor.sh_116 phases=1 bus1=l2822873.2 bus2=l2822873.0 rmatrix=[-3949.468869143896] xmatrix=[-4347106.219848447]
new Reactor.sh_117 phases=1 bus1=m1108328.3 bus2=m1108328.0 rmatrix=[-353.9789254808854] xmatrix=[-1684298.145099126]
new Reactor.sh_118 phases=1 bus1=l2875754.3 bus2=l2875754.0 rmatrix=[0] xmatrix=[-38402145.46015672]
new Reactor.sh_119 phases=1 bus1=l2786204.3 bus2=l2786204.0 rmatrix=[-0.1174452565240035] xmatrix=[-4065581.194948267]
new Reactor.sh_120 phases=1 bus1=m1009726.1 bus2=m1009726.0 rmatrix=[-2183.548658965371] xmatrix=[-2586285.739986454]
new Reactor.sh_121 phases=1 bus1=m1047702.1 bus2=m1047702.0 rmatrix=[-2.056501422967643] xmatrix=[-3712442.688579371]
new Reactor.sh_122 phases=3 bus1=l2767340.1.2.3 bus2=l2767340.0.0.0 rmatrix=[-1130.186469290951 | -1320.786560589534 -1603.551559366004 | -4396.665970119194 -5206.618492959691 -16558.52803239016] xmatrix=[-10397993.75358288 | -3162696.61408318 -10264343.4147802 | -1797604.015396012 -2120845.088512807 -5653505.399108206]
new Reactor.sh_123 phases=1 bus1=m1047457.2 bus2=m1047457.0 rmatrix=[0] xmatrix=[-5574537.824495533]
new Reactor.sh_124 phases=1 bus1=l2710546.2 bus2=l2710546.0 rmatrix=[-1.508131614608755] xmatrix=[-6212167.759168653]
new Reactor.sh_125 phases=3 bus1=l2674027.1.2.3 bus2=l2674027.0.0.0 rmatrix=[0.01514726234865275 | 0.002758542996605537 -0.01457721901419385 | 0.03304964419865555 -0.002589125653144465 0.06719692750719523] xmatrix=[-5012163.314597175 | -1987223.810117644 -5051965.082791788 | -1821647.40142292 -2149322.868096809 -5012167.003144304]
new Reactor.sh_126 phases=3 bus1=l2692633.1.2.3 bus2=l2692633.0.0.0 rmatrix=[-0.1364247889936147 | 0.0005096439402057576 0.1390058347365151 | -0.03130993058329622 0.04663931151353101 0.008384112461085794] xmatrix=[-6749994.258142116 | -2676239.581461841 -6803596.290926546 | -2453253.882928697 -2894541.861008031 -6749998.705039091]
new Reactor.sh_127 phases=1 bus1=l2674051.1 bus2=l2674051.0 rmatrix=[-0.1518217288178469] xmatrix=[-9244892.390253486]
new Reactor.sh_128 phases=3 bus1=m1069135.1.2.3 bus2=m1069135.0.0.0 rmatrix=[-0.8853801117015268 | 0.3298680589006465 -0.8874698898169462 | 0.2866541976056421 0.3595759690552658 -0.902259314362873] xmatrix=[267.7198058011626 | -0.3642474852913655 267.7136624603154 | -0.3767316963005097 -0.3738713195886344 267.6970641721549]
new Reactor.sh_129 phases=3 bus1=m1047534.1.2.3 bus2=m1047534.0.0.0 rmatrix=[-0.3157830151132683 | -0.01848107829586761 0.1057978441656117 | 0.02018345609085005 0.1992250855554709 0.3923508611455193] xmatrix=[-2114114.099228268 | -766767.0903842893 -2391875.030588691 | -659021.0355577023 -856807.2701857815 -2188288.614963949]
new Reactor.sh_130 phases=1 bus1=l3097861.3 bus2=l3097861.0 rmatrix=[0.1262938449955327] xmatrix=[-2850506.006708322]
new Reactor.sh_131 phases=1 bus1=m1069560.2 bus2=m1069560.0 rmatrix=[0.01449070961700446] xmatrix=[-2856141.512573665]
new Reactor.sh_132 phases=3 bus1=l2973153.1.2.3 bus2=l2973153.0.0.0 rmatrix=[-3.579161511347902 | -2.324750724898946 -2.681035897130485 | -3.300653062829513 -1.336822954474725 -3.182717639659154] xmatrix=[-7933169.446428505 | -2752605.891918857 -7988309.409285156 | -2523247.82623593 -2977134.206360573 -7933171.561398139]
new Reactor.sh_133 phases=1 bus1=l2898515.3 bus2=l2898515.0 rmatrix=[0.01855518965033536] xmatrix=[-3231972.043501584]
new Reactor.sh_134 phases=1 bus1=m1166387.3 bus2=m1166387.0 rmatrix=[0] xmatrix=[-3203801.203713723]
new Reactor.sh_135 phases=1 bus1=m1047442.2 bus2=m1047442.0 rmatrix=[-1935.343541049788] xmatrix=[-2552553.700053856]
new Reactor.sh_136 phases=1 bus1=l3235250.2 bus2=l3235250.0 rmatrix=[0] xmatrix=[-13008414.18640097]
new Reactor.sh_137 phases=3 bus1=m1142871.1.2.3 bus2=m1142871.0.0.0 rmatrix=[0.1356714957312684 | 0.2644580619961092 0.1253285631434569 | 0.4410224212052423 0.4161210143023708 0.4189164096079381] xmatrix=[-2794757.068852612 | -1052599.677745281 -2789750.760540217 | -846665.2404596962 -998962.6581477491 -2329555.09594733]
new Reactor.sh_138 phases=3 bus1=m1142874.1.2.3 bus2=m1142874.0.0.0 rmatrix=[0.06564101369562635 | 0.01290421259992549 0.007585440232477897 | -0.02752025051549721 -0.0208596825386462 -0.1172983884763119] xmatrix=[-1963178.009980212 | -711464.967716164 -1945962.249025042 | -509590.4248196729 -601254.8685022664 -1402111.232250587]
new Reactor.sh_139 phases=3 bus1=l2955081.1.2.3 bus2=l2955081.0.0.0 rmatrix=[-0.01148081098287983 | 0.08778447728141495 -0.04844307248238567 | -0.04373911008251998 -0.05688036592620647 -0.09185830496761466] xmatrix=[-3425989.713305977 | -1358337.122241979 -3453195.479199732 | -1245159.753888684 -1469137.456358865 -3425991.720520115]
new Reactor.sh_140 phases=3 bus1=m1108315.1.2.3 bus2=m1108315.0.0.0 rmatrix=[51.88205858712735 | 61.2198970318157 72.26953933886379 | 142.7613837224378 168.4380417320444 392.7220790515823] xmatrix=[-4020313.503914748 | -1326132.143819472 -3920891.021678916 | -644709.61834009 -760679.1387916574 -1773884.847220158]
new Reactor.sh_141 phases=3 bus1=l2973162.1.2.3 bus2=l2973162.0.0.0 rmatrix=[0.1791592708326127 | 0.09329132494791763 0.1657596705237771 | 0.0977495720524483 0.08633530787167056 0.1700135142602621] xmatrix=[-6834420.750044355 | -2371368.190012367 -6881924.806011396 | -2173775.674749883 -2564799.520154354 -6834423.182345647]
new Reactor.sh_142 phases=3 bus1=m1026333.1.2.3 bus2=m1026333.0.0.0 rmatrix=[0.8117742781859998 | 0.2912478428493714 0.2886759961259452 | 0.2847306233098459 0.1657620787028347 0.2883600894578755] xmatrix=[-4193577.643531059 | -1455063.566746018 -7934039.53173538 | -1333821.470381084 -2682747.973343146 -7956285.858250402]
new Reactor.sh_143 phases=1 bus1=m1009832.2 bus2=m1009832.0 rmatrix=[-0.0706543707984381] xmatrix=[-3153366.243930024]
new Reactor.sh_144 phases=1 bus1=l2860479.2 bus2=l2860479.0 rmatrix=[0] xmatrix=[-23276595.41636526]
new Reactor.sh_145 phases=3 bus1=m1026854.1.2.3 bus2=m1026854.0.0.0 rmatrix=[-0.242217312691653 | -0.1128086802225379 -0.09109095295357311 | -0.1223755846500335 -0.1643389438386404 -0.1275317649473978] xmatrix=[-1572936.367741165 | -584718.5597028022 -1619923.526592848 | -535998.4575895205 -643589.9468893311 -1608804.751561271]
new Reactor.sh_146 phases=1 bus1=m1026485.2 bus2=m1026485.0 rmatrix=[-0.8983032323629171] xmatrix=[-5621942.294503015]
new Reactor.sh_147 phases=3 bus1=d6413567-3_int.1.2.3 bus2=d6413567-3_int.0.0.0 rmatrix=[37.61958515843441 | 15.31149759384542 0.4096644889140926 | 19.49911651895722 13.43024224504724 28.16130010301815] xmatrix=[-14159750.58433321 | -4899188.933340223 -14256552.37137042 | -4490427.726305823 -5299366.031673952 -14159058.83656963]
new Reactor.sh_148 phases=3 bus1=e182724.1.2.3 bus2=e182724.0.0.0 rmatrix=[0.9998696199976521 | 2.118281522712145 5.227621005301696 | 2.025627764032393 3.405336017179289 5.164799705390331] xmatrix=[-8926472.524352288 | -3091741.621814605 -8987877.682281373 | -2833906.511125492 -3344149.528244732 -8926185.145211289]
new Reactor.sh_149 phases=3 bus1=l2933135.1.2.3 bus2=l2933135.0.0.0 rmatrix=[-0.2857092080124443 | 13.70042524978974 5.4249061834782 | -2.306317146330114 3.175122307122251 8.043235522287901] xmatrix=[-6293657.144465922 | -2495321.884001404 -6343624.066568754 | -2287397.099081375 -2698848.670017749 -6293671.350294983]
new Reactor.sh_150 phases=3 bus1=l2729414.1.2.3 bus2=l2729414.0.0.0 rmatrix=[0.04994609120659499 | 0.05893037922251361 0.06953075905110223 | 0.1528146962399614 0.1803029573142462 0.4675507250801975] xmatrix=[-16223693.89574938 | -5784546.06988901 -16339550.06430138 | -5302560.678816196 -6256383.709683096 -16223675.84383254]
new Reactor.sh_151 phases=1 bus1=l2729430.2 bus2=l2729430.0 rmatrix=[0.1205982772916247] xmatrix=[-5826267.864830242]
new Reactor.sh_152 phases=1 bus1=l2766742.2 bus2=l2766742.0 rmatrix=[-18858.8808187592] xmatrix=[-2974804.188028387]
new Reactor.sh_153 phases=1 bus1=l2860483.2 bus2=l2860483.0 rmatrix=[0.154431516118229] xmatrix=[-4662006.399701071]
new Reactor.sh_154 phases=3 bus1=l2860490.1.2.3 bus2=l2860490.0.0.0 rmatrix=[-0.1540697401452098 | -0.08280259465634922 -0.1161197763375876 | -0.08613968262060531 -0.09925992505487644 -0.06819614723690526] xmatrix=[-6179304.483907924 | -2144059.664657484 -6222254.927461403 | -1965407.481867587 -2318949.53425854 -6179306.626504757]
new Reactor.sh_155 phases=3 bus1=l3104134.1.2.3 bus2=l3104134.0.0.0 rmatrix=[0.149256530265619 | 0.005295324068890408 -0.02859330792750471 | -0.04041223835072084 -0.07732408771262568 -0.2054110722332203] xmatrix=[-7572861.52904371 | -2627588.119836225 -7625498.225009509 | -2408646.264358781 -2841919.168134544 -7572864.136834495]
new Reactor.sh_156 phases=3 bus1=m1089118.1.2.3 bus2=m1089118.0.0.0 rmatrix=[-0.003495432173610198 | -0.006988550907716381 -0.02001452658960836 | -0.008038735161586963 -0.01017458651371143 -0.0227854117109824] xmatrix=[-2848309.272201321 | -923640.4113199083 -3299520.272325807 | -686592.0175130237 -916844.5332958299 -2520848.779530808]
new Reactor.sh_157 phases=1 bus1=l3048208.1 bus2=l3048208.0 rmatrix=[-0.6094847718248921] xmatrix=[-18523213.0945328]
new Reactor.sh_158 phases=3 bus1=m1108505.1.2.3 bus2=m1108505.0.0.0 rmatrix=[0.4691051475227906 | 0.3803788223776501 0.6173187783574065 | 0.2731210162201378 0.2903379713019946 -0.02711429287749056] xmatrix=[-3366400.699622559 | -1334711.726016872 -3626749.885136594 | -1223502.621994372 -1521770.314587659 -3604733.017688809]
new Reactor.sh_159 phases=3 bus1=l2955047.1.2.3 bus2=l2955047.0.0.0 rmatrix=[-0.3976118128956449 | -0.1225126129825845 0.09579324195412434 | -0.2023731411362836 -0.0238140048934702 -0.07997167039260544] xmatrix=[-7122333.39543288 | -2823864.639175099 -7178892.353395059 | -2588578.834135694 -3054208.72985964 -7122338.402363321]
new Reactor.sh_160 phases=1 bus1=m1089148.1 bus2=m1089148.0 rmatrix=[0.02291946956368761] xmatrix=[-2539932.522482215]
new Reactor.sh_161 phases=1 bus1=l2766721.1 bus2=l2766721.0 rmatrix=[0.5337260057587546] xmatrix=[-17333811.76714543]
new Reactor.sh_162 phases=1 bus1=l3029183.2 bus2=l3029183.0 rmatrix=[0.6473502580808458] xmatrix=[-2257623.596446634]
new Reactor.sh_163 phases=1 bus1=l2710512.2 bus2=l2710512.0 rmatrix=[-0.02527888861214218] xmatrix=[-3772366.541466205]
new Reactor.sh_164 phases=1 bus1=m1047828.2 bus2=m1047828.0 rmatrix=[-0.07215522478977063] xmatrix=[-3186682.453683491]
new Reactor.sh_165 phases=1 bus1=l3197645.1 bus2=l3197645.0 rmatrix=[2.077628206208698] xmatrix=[-4765573.758313275]
new Reactor.sh_166 phases=1 bus1=m1069192.1 bus2=m1069192.0 rmatrix=[-0.02216076566783038] xmatrix=[-2497538.977466562]
new Reactor.sh_167 phases=1 bus1=l3235253.1 bus2=l3235253.0 rmatrix=[0] xmatrix=[-10015803.66420832]
new Reactor.sh_168 phases=3 bus1=l3214071.1.2.3 bus2=l3214071.0.0.0 rmatrix=[0.07154674392588989 | 0.04637167396965872 -0.02650731122621436 | 0.07167626584024171 -0.0234568453269855 0.1196476371911426] xmatrix=[-2544273.921478555 | -1008754.277643841 -2564477.868118313 | -924704.4949748594 -1091038.921627017 -2544275.859540175]
new Reactor.sh_169 phases=3 bus1=m1125952.1.2.3 bus2=m1125952.0.0.0 rmatrix=[-0.03020737603139891 | 1.380145628100981 2.753760447808585 | 3.589232947937612 4.35752832549464 11.06716098461654] xmatrix=[-10412381.07292956 | -3734474.728038746 -10301935.0016576 | -2583839.798295833 -3048617.396716557 -7109301.523870367]
new Reactor.sh_170 phases=1 bus1=m1027101.2 bus2=m1027101.0 rmatrix=[0] xmatrix=[-2699188.337152706]
new Reactor.sh_171 phases=1 bus1=l2860480.2 bus2=l2860480.0 rmatrix=[0] xmatrix=[-4982758.407985074]
new Reactor.sh_172 phases=1 bus1=l2710517.1 bus2=l2710517.0 rmatrix=[0] xmatrix=[-5649923.15894423]
new Reactor.sh_173 phases=1 bus1=m1026646.1 bus2=m1026646.0 rmatrix=[0] xmatrix=[-2439916.190578764]
new Reactor.sh_174 phases=1 bus1=l2935547.2 bus2=l2935547.0 rmatrix=[-1.305785470575598] xmatrix=[-6674655.228997196]
new Reactor.sh_175 phases=1 bus1=m1026931.1 bus2=m1026931.0 rmatrix=[0] xmatrix=[-5692134.415205785]
new Reactor.sh_176 phases=1 bus1=l3216336.1 bus2=l3216336.0 rmatrix=[-0.3708767194897627] xmatrix=[-7224697.775720908]
new Reactor.sh_177 phases=3 bus1=l3142049.1.2.3 bus2=l3142049.0.0.0 rmatrix=[0.2761303303344841 | 0.3386483113076965 0.1421809937644941 | 0.4253018136619724 0.4686269006694377 0.7491754304080367] xmatrix=[-4108857.855838276 | -1629081.039613642 -4141486.424315617 | -1493345.209481514 -1761966.607528215 -4108861.073873473]
new Reactor.sh_178 phases=3 bus1=m1069169.1.2.3 bus2=m1069169.0.0.0 rmatrix=[-0.3383155430889837 | -0.1216473899610646 -0.02544029119490027 | -0.1184933311167186 -0.07244905323958745 -0.1203878340941886] xmatrix=[-2359608.481386817 | -818723.4382634093 -4717492.958466718 | -750503.8984345957 -1585176.304633584 -4733516.89777727]
new Reactor.sh_179 phases=3 bus1=l3010556.1.2.3 bus2=l3010556.0.0.0 rmatrix=[-0.05060468673713318 | -0.03703872127240124 -0.03391821803469786 | -0.03940695288649463 -0.05455879471738749 -0.09063977573005876] xmatrix=[-4633096.500405963 | -1607565.293013627 -4665299.762842506 | -1473616.089472752 -1738693.589106868 -4633098.095164282]
new Reactor.sh_180 phases=1 bus1=l2991933.3 bus2=l2991933.0 rmatrix=[0.09895350585624355] xmatrix=[-5277588.062288047]
new Reactor.sh_181 phases=1 bus1=l3122837.3 bus2=l3122837.0 rmatrix=[0] xmatrix=[-3584878.004695722]
new Reactor.sh_182 phases=1 bus1=l2691936.1 bus2=l2691936.0 rmatrix=[-0.06369485368322132] xmatrix=[-5988072.692361115]
new Reactor.sh_183 phases=1 bus1=l2897772.1 bus2=l2897772.0 rmatrix=[0.3327995362865796] xmatrix=[-4562522.247941152]
new Reactor.sh_184 phases=1 bus1=l2766732.2 bus2=l2766732.0 rmatrix=[0.409434763974019] xmatrix=[-7590969.656902307]
new Reactor.sh_185 phases=1 bus1=l2989564.2 bus2=l2989564.0 rmatrix=[-0.04259590697421309] xmatrix=[-4896872.853182206]
new Reactor.sh_186 phases=1 bus1=m1126016.1 bus2=m1126016.0 rmatrix=[-0.4812852232495074] xmatrix=[-3509334.915313228]
new Reactor.sh_187 phases=3 bus1=m1026330.1.2.3 bus2=m1026330.0.0.0 rmatrix=[0.2087979709021757 | -0.02244410090355602 -0.1115451246656289 | -0.03451731899748239 -0.1206417737746534 -0.2753691096883922] xmatrix=[-8320506.502818098 | -1248178.866139971 -3622327.889485489 | -2156739.775544427 -1349992.15039559 -8211606.357565474]
new Reactor.sh_188 phases=1 bus1=l2766726.2 bus2=l2766726.0 rmatrix=[0] xmatrix=[-27886361.41684979]
new Reactor.sh_189 phases=3 bus1=m1108381.1.2.3 bus2=m1108381.0.0.0 rmatrix=[-0.2633810967307948 | -0.520054280522679 -0.4835141476562084 | -0.5241260076300818 0.2226357302291797 -0.007398413250277569] xmatrix=[-1483528.046165907 | -164368.1756813226 -1464650.820921782 | -143103.1841441913 -187191.2999097899 -1468183.387045423]
new Reactor.sh_190 phases=3 bus1=l3254237.1.2.3 bus2=l3254237.0.0.0 rmatrix=[-0.04616153679660299 | -0.008977705720398296 0.01694396830247478 | -0.01420441638023487 -0.002732209851413168 -0.02245982330698349] xmatrix=[-3780549.511750219 | -1335276.808495927 -3771740.900242154 | -1224018.055067524 -1444193.271925969 -3744994.038617662]
new Reactor.sh_191 phases=1 bus1=l2804262.1 bus2=l2804262.0 rmatrix=[0.187806310102596] xmatrix=[-5936484.747952612]
new Reactor.sh_192 phases=1 bus1=l2841639.1 bus2=l2841639.0 rmatrix=[0] xmatrix=[-7050521.583606669]
new Reactor.sh_193 phases=1 bus1=l2708744.2 bus2=l2708744.0 rmatrix=[-0.005119077360409939] xmatrix=[-1200371.68137676]
new Reactor.sh_194 phases=3 bus1=m1069519.1.2.3 bus2=m1069519.0.0.0 rmatrix=[0.1387755767428299 | -0.09727908177941665 -0.1159035081985874 | 0.05564112080381627 -0.01020506334820037 0.1962384719506504] xmatrix=[-2168947.4037151 | -795812.8656817155 -2023134.192271021 | -766830.56449377 -860727.9798985262 -2163874.071092031]
new Reactor.sh_195 phases=1 bus1=l2897790.3 bus2=l2897790.0 rmatrix=[-0.4266763917413255] xmatrix=[-6327156.484055323]
new Reactor.sh_196 phases=1 bus1=l2935566.3 bus2=l2935566.0 rmatrix=[-0.1194179173898927] xmatrix=[-11595370.68399648]
new Reactor.sh_197 phases=1 bus1=l3216337.1 bus2=l3216337.0 rmatrix=[0] xmatrix=[-14498207.9773402]
new Reactor.sh_198 phases=1 bus1=m1069548.3 bus2=m1069548.0 rmatrix=[4.012815669449218] xmatrix=[-7515008.972906123]
new Reactor.sh_199 phases=1 bus1=l3120503.1 bus2=l3120503.0 rmatrix=[-0.2587806718751536] xmatrix=[-12069820.52288628]
new Reactor.sh_200 phases=3 bus1=m1089145.1.2.3 bus2=m1089145.0.0.0 rmatrix=[0.09445286076439113 | -0.06571513113248638 -0.287933503491248 | -0.009452560002981936 -0.1304111119786925 -0.05267769695945022] xmatrix=[-4397269.625663975 | -1567843.245492218 -4428671.088964754 | -1437205.944477936 -1695730.049951058 -4397264.528466]
new Reactor.sh_201 phases=3 bus1=l3215385.1.2.3 bus2=l3215385.0.0.0 rmatrix=[-2.065248993259079 | -1.707556332525482 -3.612528300067927 | -0.4949598518177409 -0.9137604676553113 1.072281752240242] xmatrix=[-22508315.7550444 | -8025323.608915363 -22669051.91461952 | -7356629.943380679 -8679938.300331833 -22508290.54910728]
...
